no_load_60pc.csv
Bus,  V1,  p.u.,Base kV, V2, %V2/V1, V0, %V0/V1, Vresidual, %NEMA
"PPU_DUMA_33KV",    19064.8,    1.0006,    33.00, 9.31343E-006, 4.885E-008, 1.23938E-006, 6.501E-009, 3.71815E-006, 6.501E-009
"PPU_DUMA_11KV",    6549.44,     1.001,    11.33, 3.39183E-006, 5.179E-008, 3.94402E-009, 6.022E-011, 1.18295E-008, 6.498E-009
"RPPLNGI2",    6554.32,    1.0017,    11.33, 3.39404E-006, 5.178E-008, 4.02991E-009, 6.148E-011, 1.20896E-008, 6.494E-009
"PDTJLNMASJID",    6557.98,    1.0023,    11.33, 3.3957E-006, 5.178E-008, 4.11451E-009, 6.274E-011, 1.23421E-008, 6.49E-009
"BELLA",    6560.42,    1.0026,    11.33, 3.3968E-006, 5.178E-008, 4.17924E-009, 6.37E-011, 1.25369E-008, 6.488E-009
"PSTPDGN",    6561.64,    1.0028,    11.33, 3.39735E-006, 5.178E-008, 4.21505E-009, 6.424E-011, 1.26429E-008, 6.486E-009
"PAMDRA",    6549.93,     1.001,    11.33, 3.39205E-006, 5.179E-008, 3.95187E-009, 6.033E-011, 1.1854E-008, 6.498E-009
"DUMA4",    6551.58,    1.0013,    11.33, 3.3928E-006, 5.179E-008, 4.35282E-009, 6.644E-011, 1.30567E-008, 6.496E-009
"PLSDRA",    6555.24,    1.0019,    11.33, 3.39446E-006, 5.178E-008, 6.09685E-009, 9.301E-011, 1.82875E-008, 6.493E-009
"SSU_UPTWRES_IR1",    6555.85,    1.0019,    11.33, 3.39474E-006, 5.178E-008, 6.13559E-009, 9.359E-011, 1.84042E-008, 6.492E-009
"ATRIA_1",    6556.03,     1.002,    11.33, 3.39482E-006, 5.178E-008, 4.06943E-009, 6.207E-011, 1.22066E-008, 6.492E-009
"HAWKER",    6557.18,    1.0021,    11.33, 3.39533E-006, 5.178E-008, 5.07546E-009, 7.74E-011, 1.52253E-008, 6.491E-009
"PRMTE",    6553.84,    1.0016,    11.33, 3.39382E-006, 5.178E-008, 5.61351E-009, 8.565E-011, 1.68386E-008, 6.494E-009
"PRMTA",    6554.57,    1.0018,    11.33, 3.39415E-006, 5.178E-008, 5.65705E-009, 8.631E-011, 1.69687E-008, 6.493E-009
"PMONTB",    6555.15,    1.0018,    11.33, 3.39441E-006, 5.178E-008, 5.9815E-009, 9.125E-011, 1.7942E-008, 6.493E-009
"DUMA7",    6551.27,    1.0012,    11.33, 3.39266E-006, 5.179E-008, 3.97193E-009, 6.063E-011, 1.19144E-008, 6.497E-009
"HAUS",    6554.93,    1.0018,    11.33, 3.39432E-006, 5.178E-008, 5.06845E-009, 7.732E-011, 1.52026E-008, 6.493E-009
"DUMA6",    6564.97,    1.0033,    11.33, 3.3989E-006, 5.177E-008, 1.16185E-008, 1.77E-010, 3.48529E-008, 6.484E-009
"DUMA13",     6574.1,    1.0047,    11.33, 3.40306E-006, 5.176E-008, 1.83987E-008, 2.799E-010, 5.51931E-008, 6.475E-009
"SSU_DUMA5_IM2",    6575.32,    1.0049,    11.33, 3.40361E-006, 5.176E-008, 1.84879E-008, 2.812E-010, 5.54613E-008, 6.474E-009
"PLNGI_B",    6551.89,    1.0013,    11.33, 3.39294E-006, 5.179E-008, 3.98314E-009, 6.079E-011, 1.19475E-008, 6.496E-009
"PLNGI_D",    6553.11,    1.0015,    11.33, 3.39349E-006, 5.178E-008, 4.00557E-009, 6.112E-011, 1.20156E-008, 6.495E-009
"PDTLITRAK",    6561.61,    1.0028,    11.33, 3.39735E-006, 5.178E-008, 4.21812E-009, 6.428E-011, 1.26538E-008, 6.486E-009
"DUMA12",    6566.48,    1.0036,    11.33, 3.39956E-006, 5.177E-008, 4.37527E-009, 6.663E-011, 1.31241E-008, 6.482E-009
"TMNGH4",    6571.05,    1.0043,    11.33, 3.40163E-006, 5.177E-008, 6.47676E-009, 9.857E-011, 1.94279E-008, 6.477E-009
"SSU_TMEGAH3_IR1",    6572.87,    1.0045,    11.33, 3.40246E-006, 5.177E-008, 7.60748E-009, 1.157E-010, 2.28199E-008, 6.476E-009
"TMNGH2",    6573.66,    1.0047,    11.33, 3.40282E-006, 5.176E-008, 8.12489E-009, 1.236E-010, 2.43721E-008, 6.475E-009
"SPRK9",    6560.42,    1.0026,    11.33, 3.39681E-006, 5.178E-008, 4.19168E-009, 6.389E-011, 1.25739E-008, 6.488E-009
"BOMBA",    6561.03,    1.0027,    11.33, 3.39708E-006, 5.178E-008, 4.33477E-009, 6.607E-011, 1.30018E-008, 6.487E-009
"SPRK8",    6562.55,     1.003,    11.33, 3.39778E-006, 5.178E-008, 4.86679E-009, 7.416E-011, 1.45988E-008, 6.486E-009
"SSU_UPTWRES_IM2",    6551.28,    1.0012,    11.33, 3.39266E-006, 5.179E-008, 4.32541E-009, 6.602E-011, 1.29738E-008, 6.497E-009
"MAYBANK",    6553.72,    1.0016,    11.33, 3.39377E-006, 5.178E-008, 4.42529E-009, 6.752E-011, 1.32743E-008, 6.494E-009
"DUMA8",    6554.17,    1.0017,    11.33, 3.39397E-006, 5.178E-008, 4.58873E-009, 7.001E-011, 1.37645E-008, 6.494E-009
"SSU_DSARCNTR_IR1",    6550.67,    1.0012,    11.33, 3.39238E-006, 5.179E-008, 3.96236E-009, 6.049E-011, 1.18861E-008, 6.497E-009
"DUMA9",    6557.86,    1.0023,    11.33, 3.39564E-006, 5.178E-008, 4.11496E-009, 6.275E-011, 1.23432E-008, 6.49E-009
"DUMA1",    6561.27,    1.0028,    11.33, 3.39719E-006, 5.178E-008, 4.2092E-009, 6.415E-011, 1.26267E-008, 6.487E-009
"ELITE",    6562.49,     1.003,    11.33, 3.39774E-006, 5.178E-008, 4.24555E-009, 6.469E-011, 1.27344E-008, 6.485E-009
"DUMA10",     6555.3,    1.0019,    11.33, 3.39445E-006, 5.178E-008, 4.04198E-009, 6.166E-011, 1.21247E-008, 6.492E-009
"BALAIPOLIS",    6555.36,    1.0019,    11.33, 3.39448E-006, 5.178E-008, 4.04376E-009, 6.169E-011, 1.21294E-008, 6.492E-009
